# Name: VIA
# Created by ModelServer 0.9.9

# model_server_result.job_id: 7qEWJz8gOx7i18hs4n84SQ
# model_server_result.datetime_utc: 2023-08-18 07:20:12
# model_server_result.server_version: 0.9.9
# model_server_result.query_name: ligand
# model_server_result.source_id: pdb-bcif
# model_server_result.entry_id: 1udt

# model_server_params.name: atom_site
# model_server_params.value: {"label_asym_id":"D","auth_seq_id":1000}

# model_server_stats.io_time_ms: 3
# model_server_stats.parse_time_ms: 46
# model_server_stats.create_model_time_ms: 17
# model_server_stats.query_time_ms: 252
# model_server_stats.encode_time_ms: 1
# model_server_stats.element_count: 33

@<TRIPOS>MOLECULE
VIA
33 36 1
****
****

@<TRIPOS>ATOM
1 C34 -0.132 61.467 80.120 C.3 1 VIA 0.000
2 C33 -0.169 61.792 81.589 C.3 1 VIA 0.000
3 C32 -1.261 62.864 81.927 C.3 1 VIA 0.000
4 C30 -1.114 63.031 83.405 C.ar 1 VIA 0.000
5 N29 -1.798 62.280 84.370 N.ar 1 VIA 0.000
6 N28 -1.414 62.696 85.612 N.ar 1 VIA 0.000
7 C31 -1.948 62.111 86.845 C.3 1 VIA 0.000
8 C24 -0.495 63.700 85.440 C.ar 1 VIA 0.000
9 C23 0.260 64.519 86.346 C.ar 1 VIA 0.000
10 O27 0.180 64.422 87.549 O.2 1 VIA 0.000
11 N22 1.125 65.474 85.816 N.ar 1 VIA 0.000
12 C21 1.308 65.684 84.442 C.ar 1 VIA 0.000
13 N26 0.597 64.907 83.520 N.ar 1 VIA 0.000
14 C25 -0.293 63.928 84.046 C.ar 1 VIA 0.000
15 C9 2.223 66.702 84.058 C.ar 1 VIA 0.000
16 C8 1.731 67.655 83.084 C.ar 1 VIA 0.000
17 C7 2.568 68.758 82.617 C.ar 1 VIA 0.000
18 C6 3.952 68.860 83.180 C.ar 1 VIA 0.000
19 C5 4.466 67.911 84.162 C.ar 1 VIA 0.000
20 C4 3.609 66.806 84.633 C.ar 1 VIA 0.000
21 O3 4.019 65.830 85.620 O.3 1 VIA 0.000
22 C2 5.304 65.803 86.273 C.3 1 VIA 0.000
23 C1 5.234 64.623 87.228 C.3 1 VIA 0.000
24 S10 2.023 69.831 81.561 S.o2 1 VIA 0.000
25 O11 2.313 69.600 80.294 O.2 1 VIA 0.000
26 O12 0.712 69.861 81.611 O.2 1 VIA 0.000
27 N14 2.690 71.159 82.127 N.pl3 1 VIA 0.000
28 C19 1.724 72.087 82.963 C.3 1 VIA 0.000
29 C18 0.820 73.057 82.178 C.3 1 VIA 0.000
30 N17 1.426 73.686 80.956 N.3 1 VIA 0.000
31 C20 1.557 75.156 81.201 C.3 1 VIA 0.000
32 C16 2.752 73.145 80.416 C.3 1 VIA 0.000
33 C15 3.539 72.092 81.285 C.3 1 VIA 0.000
@<TRIPOS>BOND
1 1 2 1
2 2 3 1
3 3 4 1
4 4 5 ar
5 4 14 ar
6 5 6 ar
7 6 7 1
8 6 8 ar
9 8 9 ar
10 8 14 ar
11 9 10 2
12 9 11 ar
13 11 12 ar
14 12 13 ar
15 12 15 ar
16 13 14 ar
17 15 16 ar
18 15 20 ar
19 16 17 ar
20 17 18 ar
21 17 24 1
22 18 19 ar
23 19 20 ar
24 20 21 1
25 21 22 1
26 22 23 1
27 24 25 2
28 24 26 2
29 24 27 1
30 27 28 1
31 27 33 1
32 28 29 1
33 29 30 1
34 30 31 1
35 30 32 1
36 32 33 1
@<TRIPOS>SUBSTRUCTURE
1 VIA 1
