# Name: ETQ
# Created by ModelServer 0.9.9

# model_server_result.job_id: b64LTdUIEINhR37VrAkFSg
# model_server_result.datetime_utc: 2023-08-16 13:10:42
# model_server_result.server_version: 0.9.9
# model_server_result.query_name: ligand
# model_server_result.source_id: pdb-bcif
# model_server_result.entry_id: 3pbl

# model_server_params.name: atom_site
# model_server_params.value: {"label_asym_id":"E","auth_seq_id":1200}

# model_server_stats.io_time_ms: 53
# model_server_stats.parse_time_ms: 85
# model_server_stats.create_model_time_ms: 11
# model_server_stats.query_time_ms: 200
# model_server_stats.encode_time_ms: 0
# model_server_stats.element_count: 23

@<TRIPOS>MOLECULE
ETQ
23 24 1
****
****

@<TRIPOS>ATOM
1 C1 -0.808 -12.336 10.552 C.ar 1 ETQ 0.000
2 N1 1.169 -15.276 11.481 N.am 1 ETQ 0.000
3 O1 -1.529 -12.230 11.699 O.3 1 ETQ 0.000
4 CL1 1.609 -12.656 6.762 CL 1 ETQ 0.000
5 C2 -0.877 -11.305 9.607 C.ar 1 ETQ 0.000
6 N2 0.627 -18.263 11.145 N.3 1 ETQ 0.000
7 O2 1.505 -14.650 8.887 O.3 1 ETQ 0.000
8 C3 -0.110 -11.409 8.445 C.ar 1 ETQ 0.000
9 O3 -0.896 -14.720 12.206 O.2 1 ETQ 0.000
10 C4 0.688 -12.528 8.220 C.ar 1 ETQ 0.000
11 C5 0.735 -13.562 9.154 C.ar 1 ETQ 0.000
12 C6 0.776 -15.529 8.019 C.3 1 ETQ 0.000
13 C7 -0.025 -13.478 10.328 C.ar 1 ETQ 0.000
14 C8 0.036 -14.573 11.418 C.2 1 ETQ 0.000
15 C9 1.414 -16.339 12.476 C.3 1 ETQ 0.000
16 C10 0.376 -17.461 12.360 C.3 1 ETQ 0.000
17 C11 0.522 -18.414 13.544 C.3 1 ETQ 0.000
18 C12 1.509 -19.445 13.022 C.3 1 ETQ 0.000
19 C13 1.059 -19.607 11.578 C.3 1 ETQ 0.000
20 C14 -0.622 -18.363 10.378 C.3 1 ETQ 0.000
21 C15 -0.320 -18.626 8.910 C.3 1 ETQ 0.000
22 C16 -1.689 -10.011 9.786 C.3 1 ETQ 0.000
23 C17 -3.187 -10.271 9.960 C.3 1 ETQ 0.000
@<TRIPOS>BOND
1 1 3 1
2 1 5 ar
3 1 13 ar
4 2 14 1
5 2 15 1
6 4 10 1
7 5 8 ar
8 5 22 1
9 6 16 1
10 6 19 1
11 6 20 1
12 7 11 1
13 7 12 1
14 8 10 ar
15 9 14 2
16 10 11 ar
17 11 13 ar
18 13 14 1
19 15 16 1
20 16 17 1
21 17 18 1
22 18 19 1
23 20 21 1
24 22 23 1
@<TRIPOS>SUBSTRUCTURE
1 ETQ 1
